REMARK  4 active torsions:
REMARK  status: ('A' for Active; 'I' for Inactive)
REMARK    1  A    between atoms: C11_13  and  O5_23 
REMARK    2  A    between atoms: C12_14  and  O4_21 
REMARK    3  A    between atoms: C13_15  and  O3_19 
REMARK    4  A    between atoms: C14_16  and  O2_17 
ROOT
ATOM      1  C1  UNK     1      16.485 -14.313  45.568  1.00  0.00     0.156 C 
ATOM      2  N1  UNK     1      16.012 -13.926  44.237  1.00  0.00    -0.347 N 
ATOM      3  C2  UNK     1      16.867 -13.256  43.387  1.00  0.00     0.049 A 
ATOM      4  C3  UNK     1      18.234 -13.215  43.653  1.00  0.00     0.030 A 
ATOM      5  C4  UNK     1      19.081 -12.539  42.801  1.00  0.00     0.002 A 
ATOM      6  C5  UNK     1      18.588 -11.894  41.676  1.00  0.00     0.001 A 
ATOM      7  C6  UNK     1      17.240 -11.923  41.393  1.00  0.00     0.018 A 
ATOM      8  C7  UNK     1      16.371 -12.605  42.244  1.00  0.00     0.042 A 
ATOM      9  C8  UNK     1      14.923 -12.663  41.964  1.00  0.00     0.199 C 
ATOM     10  O1  UNK     1      14.407 -11.940  41.130  1.00  0.00    -0.286 OA
ATOM     11  C9  UNK     1      14.132 -13.633  42.736  1.00  0.00     0.081 A 
ATOM     12  C10 UNK     1      14.719 -14.248  43.860  1.00  0.00     0.088 A 
ATOM     13  C11 UNK     1      13.983 -15.174  44.593  1.00  0.00     0.132 A 
ATOM     14  C12 UNK     1      12.682 -15.481  44.218  1.00  0.00     0.140 A 
ATOM     15  C13 UNK     1      12.099 -14.870  43.109  1.00  0.00     0.139 A 
ATOM     16  C14 UNK     1      12.818 -13.948  42.364  1.00  0.00     0.121 A 
ENDROOT
BRANCH  13  17
ATOM     17  O5  UNK     1      14.539 -15.779  45.679  1.00  0.00    -0.351 OA
ATOM     18  C18 UNK     1      15.048 -17.038  45.234  1.00  0.00     0.210 C 
ENDBRANCH  13  17
BRANCH  14  19
ATOM     19  O4  UNK     1      11.970 -16.387  44.939  1.00  0.00    -0.350 OA
ATOM     20  C17 UNK     1      11.206 -15.647  45.893  1.00  0.00     0.210 C 
ENDBRANCH  14  19
BRANCH  15  21
ATOM     21  O3  UNK     1      10.822 -15.181  42.755  1.00  0.00    -0.351 OA
ATOM     22  C16 UNK     1      10.906 -16.215  41.772  1.00  0.00     0.210 C 
ENDBRANCH  15  21
BRANCH  16  23
ATOM     23  O2  UNK     1      12.249 -13.351  41.285  1.00  0.00    -0.352 OA
ATOM     24  C15 UNK     1      11.573 -12.187  41.765  1.00  0.00     0.210 C 
ENDBRANCH  16  23
TORSDOF 4
