MODEL 1
REMARK VINA RESULT:      -7.1      0.000      0.000
REMARK  4 active torsions:
REMARK  status: ('A' for Active; 'I' for Inactive)
REMARK    1  A    between atoms: C11_13  and  O5_23 
REMARK    2  A    between atoms: C12_14  and  O4_21 
REMARK    3  A    between atoms: C13_15  and  O3_19 
REMARK    4  A    between atoms: C14_16  and  O2_17 
ROOT
ATOM      1  C1  UNK     1       8.904  -6.020  -5.653  1.00  0.00     0.156 C 
ATOM      2  N1  UNK     1      10.170  -5.294  -5.783  1.00  0.00    -0.347 N 
ATOM      3  C2  UNK     1      10.970  -5.132  -4.672  1.00  0.00     0.049 A 
ATOM      4  C3  UNK     1      10.747  -5.893  -3.526  1.00  0.00     0.030 A 
ATOM      5  C4  UNK     1      11.548  -5.721  -2.418  1.00  0.00     0.002 A 
ATOM      6  C5  UNK     1      12.581  -4.794  -2.427  1.00  0.00     0.001 A 
ATOM      7  C6  UNK     1      12.821  -4.032  -3.550  1.00  0.00     0.018 A 
ATOM      8  C7  UNK     1      12.020  -4.197  -4.679  1.00  0.00     0.042 A 
ATOM      9  C8  UNK     1      12.257  -3.403  -5.901  1.00  0.00     0.199 C 
ATOM     10  O1  UNK     1      12.991  -2.431  -5.895  1.00  0.00    -0.286 OA
ATOM     11  C9  UNK     1      11.568  -3.839  -7.125  1.00  0.00     0.081 A 
ATOM     12  C10 UNK     1      10.537  -4.794  -7.021  1.00  0.00     0.088 A 
ATOM     13  C11 UNK     1       9.884  -5.221  -8.173  1.00  0.00     0.132 A 
ATOM     14  C12 UNK     1      10.247  -4.704  -9.410  1.00  0.00     0.140 A 
ATOM     15  C13 UNK     1      11.264  -3.756  -9.513  1.00  0.00     0.139 A 
ATOM     16  C14 UNK     1      11.929  -3.322  -8.376  1.00  0.00     0.121 A 
ENDROOT
BRANCH  13  17
ATOM     17  O5  UNK     1       8.888  -6.146  -8.088  1.00  0.00    -0.351 OA
ATOM     18  C18 UNK     1       7.668  -5.467  -8.394  1.00  0.00     0.210 C 
ENDBRANCH  13  17
BRANCH  14  19
ATOM     19  O4  UNK     1       9.604  -5.126 -10.530  1.00  0.00    -0.350 OA
ATOM     20  C17 UNK     1      10.216  -6.358 -10.918  1.00  0.00     0.210 C 
ENDBRANCH  14  19
BRANCH  15  21
ATOM     21  O3  UNK     1      11.607  -3.258 -10.732  1.00  0.00    -0.351 OA
ATOM     22  C16 UNK     1      12.826  -3.901 -11.113  1.00  0.00     0.210 C 
ENDBRANCH  15  21
BRANCH  16  23
ATOM     23  O2  UNK     1      12.918  -2.397  -8.477  1.00  0.00    -0.352 OA
ATOM     24  C15 UNK     1      12.286  -1.141  -8.731  1.00  0.00     0.210 C 
ENDBRANCH  16  23
TORSDOF 4
ENDMDL
MODEL 2
REMARK VINA RESULT:      -7.0      1.457      1.648
REMARK  4 active torsions:
REMARK  status: ('A' for Active; 'I' for Inactive)
REMARK    1  A    between atoms: C11_13  and  O5_23 
REMARK    2  A    between atoms: C12_14  and  O4_21 
REMARK    3  A    between atoms: C13_15  and  O3_19 
REMARK    4  A    between atoms: C14_16  and  O2_17 
ROOT
ATOM      1  C1  UNK     1       8.770  -5.787  -6.713  1.00  0.00     0.156 C 
ATOM      2  N1  UNK     1       9.949  -4.923  -6.805  1.00  0.00    -0.347 N 
ATOM      3  C2  UNK     1      10.761  -4.773  -5.700  1.00  0.00     0.049 A 
ATOM      4  C3  UNK     1      10.653  -5.649  -4.623  1.00  0.00     0.030 A 
ATOM      5  C4  UNK     1      11.465  -5.489  -3.521  1.00  0.00     0.002 A 
ATOM      6  C5  UNK     1      12.395  -4.461  -3.469  1.00  0.00     0.001 A 
ATOM      7  C6  UNK     1      12.520  -3.583  -4.524  1.00  0.00     0.018 A 
ATOM      8  C7  UNK     1      11.707  -3.734  -5.647  1.00  0.00     0.042 A 
ATOM      9  C8  UNK     1      11.823  -2.817  -6.798  1.00  0.00     0.199 C 
ATOM     10  O1  UNK     1      12.452  -1.776  -6.720  1.00  0.00    -0.286 OA
ATOM     11  C9  UNK     1      11.147  -3.217  -8.041  1.00  0.00     0.081 A 
ATOM     12  C10 UNK     1      10.224  -4.281  -8.001  1.00  0.00     0.088 A 
ATOM     13  C11 UNK     1       9.584  -4.674  -9.173  1.00  0.00     0.132 A 
ATOM     14  C12 UNK     1       9.854  -4.016 -10.365  1.00  0.00     0.140 A 
ATOM     15  C13 UNK     1      10.763  -2.960 -10.405  1.00  0.00     0.139 A 
ATOM     16  C14 UNK     1      11.413  -2.557  -9.248  1.00  0.00     0.121 A 
ENDROOT
BRANCH  13  17
ATOM     17  O5  UNK     1       8.693  -5.703  -9.149  1.00  0.00    -0.351 OA
ATOM     18  C18 UNK     1       9.259  -6.756  -9.932  1.00  0.00     0.210 C 
ENDBRANCH  13  17
BRANCH  14  19
ATOM     19  O4  UNK     1       9.225  -4.406 -11.505  1.00  0.00    -0.350 OA
ATOM     20  C17 UNK     1       7.937  -3.788 -11.499  1.00  0.00     0.210 C 
ENDBRANCH  14  19
BRANCH  15  21
ATOM     21  O3  UNK     1      11.016  -2.325 -11.582  1.00  0.00    -0.351 OA
ATOM     22  C16 UNK     1      10.232  -1.130 -11.583  1.00  0.00     0.210 C 
ENDBRANCH  15  21
BRANCH  16  23
ATOM     23  O2  UNK     1      12.297  -1.527  -9.287  1.00  0.00    -0.352 OA
ATOM     24  C15 UNK     1      13.498  -2.034  -9.874  1.00  0.00     0.210 C 
ENDBRANCH  16  23
TORSDOF 4
ENDMDL
MODEL 3
REMARK VINA RESULT:      -7.0      2.126      5.787
REMARK  4 active torsions:
REMARK  status: ('A' for Active; 'I' for Inactive)
REMARK    1  A    between atoms: C11_13  and  O5_23 
REMARK    2  A    between atoms: C12_14  and  O4_21 
REMARK    3  A    between atoms: C13_15  and  O3_19 
REMARK    4  A    between atoms: C14_16  and  O2_17 
ROOT
ATOM      1  C1  UNK     1       8.673  -4.973 -10.856  1.00  0.00     0.156 C 
ATOM      2  N1  UNK     1       8.540  -5.563  -9.522  1.00  0.00    -0.347 N 
ATOM      3  C2  UNK     1       7.627  -6.578  -9.323  1.00  0.00     0.049 A 
ATOM      4  C3  UNK     1       7.065  -7.242 -10.411  1.00  0.00     0.030 A 
ATOM      5  C4  UNK     1       6.150  -8.252 -10.203  1.00  0.00     0.002 A 
ATOM      6  C5  UNK     1       5.778  -8.618  -8.918  1.00  0.00     0.001 A 
ATOM      7  C6  UNK     1       6.323  -7.976  -7.827  1.00  0.00     0.018 A 
ATOM      8  C7  UNK     1       7.252  -6.954  -8.022  1.00  0.00     0.042 A 
ATOM      9  C8  UNK     1       7.861  -6.252  -6.875  1.00  0.00     0.199 C 
ATOM     10  O1  UNK     1       7.415  -6.371  -5.747  1.00  0.00    -0.286 OA
ATOM     11  C9  UNK     1       9.029  -5.405  -7.154  1.00  0.00     0.081 A 
ATOM     12  C10 UNK     1       9.338  -5.092  -8.493  1.00  0.00     0.088 A 
ATOM     13  C11 UNK     1      10.447  -4.298  -8.771  1.00  0.00     0.132 A 
ATOM     14  C12 UNK     1      11.234  -3.818  -7.733  1.00  0.00     0.140 A 
ATOM     15  C13 UNK     1      10.927  -4.123  -6.408  1.00  0.00     0.139 A 
ATOM     16  C14 UNK     1       9.829  -4.916  -6.112  1.00  0.00     0.121 A 
ENDROOT
BRANCH  13  17
ATOM     17  O5  UNK     1      10.759  -3.992 -10.060  1.00  0.00    -0.351 OA
ATOM     18  C18 UNK     1      11.905  -4.774 -10.404  1.00  0.00     0.210 C 
ENDBRANCH  13  17
BRANCH  14  19
ATOM     19  O4  UNK     1      12.315  -3.043  -8.012  1.00  0.00    -0.350 OA
ATOM     20  C17 UNK     1      11.855  -1.691  -8.057  1.00  0.00     0.210 C 
ENDBRANCH  14  19
BRANCH  15  21
ATOM     21  O3  UNK     1      11.708  -3.643  -5.402  1.00  0.00    -0.351 OA
ATOM     22  C16 UNK     1      12.908  -4.419  -5.404  1.00  0.00     0.210 C 
ENDBRANCH  15  21
BRANCH  16  23
ATOM     23  O2  UNK     1       9.529  -5.210  -4.821  1.00  0.00    -0.352 OA
ATOM     24  C15 UNK     1      10.295  -6.365  -4.472  1.00  0.00     0.210 C 
ENDBRANCH  16  23
TORSDOF 4
ENDMDL
MODEL 4
REMARK VINA RESULT:      -6.3      1.232      2.001
REMARK  4 active torsions:
REMARK  status: ('A' for Active; 'I' for Inactive)
REMARK    1  A    between atoms: C11_13  and  O5_23 
REMARK    2  A    between atoms: C12_14  and  O4_21 
REMARK    3  A    between atoms: C13_15  and  O3_19 
REMARK    4  A    between atoms: C14_16  and  O2_17 
ROOT
ATOM      1  C1  UNK     1       9.295  -5.845  -5.044  1.00  0.00     0.156 C 
ATOM      2  N1  UNK     1      10.265  -5.108  -5.857  1.00  0.00    -0.347 N 
ATOM      3  C2  UNK     1      11.373  -4.557  -5.248  1.00  0.00     0.049 A 
ATOM      4  C3  UNK     1      11.732  -4.942  -3.958  1.00  0.00     0.030 A 
ATOM      5  C4  UNK     1      12.838  -4.383  -3.355  1.00  0.00     0.002 A 
ATOM      6  C5  UNK     1      13.603  -3.434  -4.018  1.00  0.00     0.001 A 
ATOM      7  C6  UNK     1      13.267  -3.039  -5.295  1.00  0.00     0.018 A 
ATOM      8  C7  UNK     1      12.153  -3.598  -5.919  1.00  0.00     0.042 A 
ATOM      9  C8  UNK     1      11.772  -3.204  -7.289  1.00  0.00     0.199 C 
ATOM     10  O1  UNK     1      12.262  -2.228  -7.830  1.00  0.00    -0.286 OA
ATOM     11  C9  UNK     1      10.775  -4.042  -7.973  1.00  0.00     0.081 A 
ATOM     12  C10 UNK     1      10.051  -4.988  -7.220  1.00  0.00     0.088 A 
ATOM     13  C11 UNK     1       9.112  -5.792  -7.858  1.00  0.00     0.132 A 
ATOM     14  C12 UNK     1       8.891  -5.656  -9.221  1.00  0.00     0.140 A 
ATOM     15  C13 UNK     1       9.604  -4.718  -9.966  1.00  0.00     0.139 A 
ATOM     16  C14 UNK     1      10.547  -3.910  -9.349  1.00  0.00     0.121 A 
ENDROOT
BRANCH  13  17
ATOM     17  O5  UNK     1       8.407  -6.713  -7.143  1.00  0.00    -0.351 OA
ATOM     18  C18 UNK     1       7.040  -6.298  -7.169  1.00  0.00     0.210 C 
ENDBRANCH  13  17
BRANCH  14  19
ATOM     19  O4  UNK     1       7.972  -6.446  -9.837  1.00  0.00    -0.350 OA
ATOM     20  C17 UNK     1       8.679  -7.574 -10.357  1.00  0.00     0.210 C 
ENDBRANCH  14  19
BRANCH  15  21
ATOM     21  O3  UNK     1       9.376  -4.595 -11.303  1.00  0.00    -0.351 OA
ATOM     22  C16 UNK     1       8.217  -3.771 -11.450  1.00  0.00     0.210 C 
ENDBRANCH  15  21
BRANCH  16  23
ATOM     23  O2  UNK     1      11.239  -2.994 -10.074  1.00  0.00    -0.352 OA
ATOM     24  C15 UNK     1      12.322  -3.691 -10.695  1.00  0.00     0.210 C 
ENDBRANCH  16  23
TORSDOF 4
ENDMDL
MODEL 5
REMARK VINA RESULT:      -6.2      1.611      5.165
REMARK  4 active torsions:
REMARK  status: ('A' for Active; 'I' for Inactive)
REMARK    1  A    between atoms: C11_13  and  O5_23 
REMARK    2  A    between atoms: C12_14  and  O4_21 
REMARK    3  A    between atoms: C13_15  and  O3_19 
REMARK    4  A    between atoms: C14_16  and  O2_17 
ROOT
ATOM      1  C1  UNK     1       8.688  -6.382  -5.975  1.00  0.00     0.156 C 
ATOM      2  N1  UNK     1       8.798  -5.998  -7.384  1.00  0.00    -0.347 N 
ATOM      3  C2  UNK     1       8.004  -6.630  -8.318  1.00  0.00     0.049 A 
ATOM      4  C3  UNK     1       6.909  -7.390  -7.912  1.00  0.00     0.030 A 
ATOM      5  C4  UNK     1       6.124  -8.022  -8.852  1.00  0.00     0.002 A 
ATOM      6  C5  UNK     1       6.410  -7.912 -10.205  1.00  0.00     0.001 A 
ATOM      7  C6  UNK     1       7.486  -7.164 -10.628  1.00  0.00     0.018 A 
ATOM      8  C7  UNK     1       8.289  -6.517  -9.690  1.00  0.00     0.042 A 
ATOM      9  C8  UNK     1       9.444  -5.700 -10.112  1.00  0.00     0.199 C 
ATOM     10  O1  UNK     1       9.874  -5.747 -11.251  1.00  0.00    -0.286 OA
ATOM     11  C9  UNK     1      10.050  -4.826  -9.096  1.00  0.00     0.081 A 
ATOM     12  C10 UNK     1       9.692  -5.004  -7.745  1.00  0.00     0.088 A 
ATOM     13  C11 UNK     1      10.253  -4.178  -6.776  1.00  0.00     0.132 A 
ATOM     14  C12 UNK     1      11.160  -3.193  -7.143  1.00  0.00     0.140 A 
ATOM     15  C13 UNK     1      11.519  -3.019  -8.479  1.00  0.00     0.139 A 
ATOM     16  C14 UNK     1      10.967  -3.830  -9.459  1.00  0.00     0.121 A 
ENDROOT
BRANCH  13  17
ATOM     17  O5  UNK     1       9.913  -4.335  -5.467  1.00  0.00    -0.351 OA
ATOM     18  C18 UNK     1      10.967  -5.079  -4.853  1.00  0.00     0.210 C 
ENDBRANCH  13  17
BRANCH  14  19
ATOM     19  O4  UNK     1      11.703  -2.389  -6.191  1.00  0.00    -0.350 OA
ATOM     20  C17 UNK     1      13.040  -2.846  -5.979  1.00  0.00     0.210 C 
ENDBRANCH  14  19
BRANCH  15  21
ATOM     21  O3  UNK     1      12.410  -2.050  -8.823  1.00  0.00    -0.351 OA
ATOM     22  C16 UNK     1      11.647  -0.903  -9.205  1.00  0.00     0.210 C 
ENDBRANCH  15  21
BRANCH  16  23
ATOM     23  O2  UNK     1      11.318  -3.663 -10.760  1.00  0.00    -0.352 OA
ATOM     24  C15 UNK     1      12.658  -4.142 -10.892  1.00  0.00     0.210 C 
ENDBRANCH  16  23
TORSDOF 4
ENDMDL
MODEL 6
REMARK VINA RESULT:      -6.0      1.111      3.638
REMARK  4 active torsions:
REMARK  status: ('A' for Active; 'I' for Inactive)
REMARK    1  A    between atoms: C11_13  and  O5_23 
REMARK    2  A    between atoms: C12_14  and  O4_21 
REMARK    3  A    between atoms: C13_15  and  O3_19 
REMARK    4  A    between atoms: C14_16  and  O2_17 
ROOT
ATOM      1  C1  UNK     1      13.670  -3.391  -5.409  1.00  0.00     0.156 C 
ATOM      2  N1  UNK     1      12.369  -4.062  -5.378  1.00  0.00    -0.347 N 
ATOM      3  C2  UNK     1      11.917  -4.601  -4.192  1.00  0.00     0.049 A 
ATOM      4  C3  UNK     1      12.524  -4.258  -2.987  1.00  0.00     0.030 A 
ATOM      5  C4  UNK     1      12.070  -4.806  -1.806  1.00  0.00     0.002 A 
ATOM      6  C5  UNK     1      11.009  -5.701  -1.802  1.00  0.00     0.001 A 
ATOM      7  C6  UNK     1      10.393  -6.053  -2.983  1.00  0.00     0.018 A 
ATOM      8  C7  UNK     1      10.840  -5.505  -4.185  1.00  0.00     0.042 A 
ATOM      9  C8  UNK     1      10.195  -5.854  -5.466  1.00  0.00     0.199 C 
ATOM     10  O1  UNK     1       9.419  -6.790  -5.553  1.00  0.00    -0.286 OA
ATOM     11  C9  UNK     1      10.529  -5.021  -6.630  1.00  0.00     0.081 A 
ATOM     12  C10 UNK     1      11.618  -4.132  -6.540  1.00  0.00     0.088 A 
ATOM     13  C11 UNK     1      11.938  -3.332  -7.633  1.00  0.00     0.132 A 
ATOM     14  C12 UNK     1      11.191  -3.419  -8.800  1.00  0.00     0.140 A 
ATOM     15  C13 UNK     1      10.116  -4.301  -8.892  1.00  0.00     0.139 A 
ATOM     16  C14 UNK     1       9.779  -5.103  -7.812  1.00  0.00     0.121 A 
ENDROOT
BRANCH  13  17
ATOM     17  O5  UNK     1      12.986  -2.465  -7.559  1.00  0.00    -0.351 OA
ATOM     18  C18 UNK     1      12.431  -1.149  -7.538  1.00  0.00     0.210 C 
ENDBRANCH  13  17
BRANCH  14  19
ATOM     19  O4  UNK     1      11.510  -2.634  -9.863  1.00  0.00    -0.350 OA
ATOM     20  C17 UNK     1      12.530  -3.320 -10.591  1.00  0.00     0.210 C 
ENDBRANCH  14  19
BRANCH  15  21
ATOM     21  O3  UNK     1       9.394  -4.375 -10.043  1.00  0.00    -0.351 OA
ATOM     22  C16 UNK     1       9.794  -5.576 -10.706  1.00  0.00     0.210 C 
ENDBRANCH  15  21
BRANCH  16  23
ATOM     23  O2  UNK     1       8.733  -5.965  -7.902  1.00  0.00    -0.352 OA
ATOM     24  C15 UNK     1       7.549  -5.206  -7.649  1.00  0.00     0.210 C 
ENDBRANCH  16  23
TORSDOF 4
ENDMDL
MODEL 7
REMARK VINA RESULT:      -5.9      1.648      4.775
REMARK  4 active torsions:
REMARK  status: ('A' for Active; 'I' for Inactive)
REMARK    1  A    between atoms: C11_13  and  O5_23 
REMARK    2  A    between atoms: C12_14  and  O4_21 
REMARK    3  A    between atoms: C13_15  and  O3_19 
REMARK    4  A    between atoms: C14_16  and  O2_17 
ROOT
ATOM      1  C1  UNK     1       9.879  -5.795  -5.242  1.00  0.00     0.156 C 
ATOM      2  N1  UNK     1       9.235  -5.817  -6.557  1.00  0.00    -0.347 N 
ATOM      3  C2  UNK     1       8.090  -6.565  -6.734  1.00  0.00     0.049 A 
ATOM      4  C3  UNK     1       7.383  -7.041  -5.631  1.00  0.00     0.030 A 
ATOM      5  C4  UNK     1       6.242  -7.792  -5.817  1.00  0.00     0.002 A 
ATOM      6  C5  UNK     1       5.786  -8.084  -7.094  1.00  0.00     0.001 A 
ATOM      7  C6  UNK     1       6.468  -7.623  -8.198  1.00  0.00     0.018 A 
ATOM      8  C7  UNK     1       7.622  -6.859  -8.027  1.00  0.00     0.042 A 
ATOM      9  C8  UNK     1       8.371  -6.342  -9.189  1.00  0.00     0.199 C 
ATOM     10  O1  UNK     1       8.153  -6.747 -10.317  1.00  0.00    -0.286 OA
ATOM     11  C9  UNK     1       9.391  -5.317  -8.923  1.00  0.00     0.081 A 
ATOM     12  C10 UNK     1       9.787  -5.080  -7.592  1.00  0.00     0.088 A 
ATOM     13  C11 UNK     1      10.745  -4.107  -7.328  1.00  0.00     0.132 A 
ATOM     14  C12 UNK     1      11.306  -3.382  -8.371  1.00  0.00     0.140 A 
ATOM     15  C13 UNK     1      10.918  -3.618  -9.689  1.00  0.00     0.139 A 
ATOM     16  C14 UNK     1       9.962  -4.582  -9.971  1.00  0.00     0.121 A 
ENDROOT
BRANCH  13  17
ATOM     17  O5  UNK     1      11.134  -3.865  -6.045  1.00  0.00    -0.351 OA
ATOM     18  C18 UNK     1      12.497  -4.281  -5.942  1.00  0.00     0.210 C 
ENDBRANCH  13  17
BRANCH  14  19
ATOM     19  O4  UNK     1      12.241  -2.432  -8.104  1.00  0.00    -0.350 OA
ATOM     20  C17 UNK     1      11.598  -1.165  -8.257  1.00  0.00     0.210 C 
ENDBRANCH  14  19
BRANCH  15  21
ATOM     21  O3  UNK     1      11.478  -2.900 -10.701  1.00  0.00    -0.351 OA
ATOM     22  C16 UNK     1      12.722  -3.530 -11.015  1.00  0.00     0.210 C 
ENDBRANCH  15  21
BRANCH  16  23
ATOM     23  O2  UNK     1       9.586  -4.813 -11.256  1.00  0.00    -0.352 OA
ATOM     24  C15 UNK     1       8.583  -3.847 -11.574  1.00  0.00     0.210 C 
ENDBRANCH  16  23
TORSDOF 4
ENDMDL
MODEL 8
REMARK VINA RESULT:      -5.8      2.193      4.806
REMARK  4 active torsions:
REMARK  status: ('A' for Active; 'I' for Inactive)
REMARK    1  A    between atoms: C11_13  and  O5_23 
REMARK    2  A    between atoms: C12_14  and  O4_21 
REMARK    3  A    between atoms: C13_15  and  O3_19 
REMARK    4  A    between atoms: C14_16  and  O2_17 
ROOT
ATOM      1  C1  UNK     1      11.126  -4.638 -10.551  1.00  0.00     0.156 C 
ATOM      2  N1  UNK     1      10.955  -4.272  -9.143  1.00  0.00    -0.347 N 
ATOM      3  C2  UNK     1      11.797  -3.333  -8.585  1.00  0.00     0.049 A 
ATOM      4  C3  UNK     1      12.587  -2.524  -9.399  1.00  0.00     0.030 A 
ATOM      5  C4  UNK     1      13.429  -1.591  -8.832  1.00  0.00     0.002 A 
ATOM      6  C5  UNK     1      13.503  -1.447  -7.454  1.00  0.00     0.001 A 
ATOM      7  C6  UNK     1      12.730  -2.235  -6.631  1.00  0.00     0.018 A 
ATOM      8  C7  UNK     1      11.871  -3.182  -7.189  1.00  0.00     0.042 A 
ATOM      9  C8  UNK     1      11.022  -4.035  -6.335  1.00  0.00     0.199 C 
ATOM     10  O1  UNK     1      11.204  -4.112  -5.132  1.00  0.00    -0.286 OA
ATOM     11  C9  UNK     1       9.948  -4.788  -7.000  1.00  0.00     0.081 A 
ATOM     12  C10 UNK     1       9.948  -4.873  -8.406  1.00  0.00     0.088 A 
ATOM     13  C11 UNK     1       8.932  -5.575  -9.047  1.00  0.00     0.132 A 
ATOM     14  C12 UNK     1       7.934  -6.188  -8.302  1.00  0.00     0.140 A 
ATOM     15  C13 UNK     1       7.935  -6.108  -6.910  1.00  0.00     0.139 A 
ATOM     16  C14 UNK     1       8.937  -5.409  -6.254  1.00  0.00     0.121 A 
ENDROOT
BRANCH  13  17
ATOM     17  O5  UNK     1       8.917  -5.662 -10.406  1.00  0.00    -0.351 OA
ATOM     18  C18 UNK     1       7.954  -4.713 -10.869  1.00  0.00     0.210 C 
ENDBRANCH  13  17
BRANCH  14  19
ATOM     19  O4  UNK     1       6.944  -6.871  -8.935  1.00  0.00    -0.350 OA
ATOM     20  C17 UNK     1       7.514  -8.103  -9.382  1.00  0.00     0.210 C 
ENDBRANCH  14  19
BRANCH  15  21
ATOM     21  O3  UNK     1       6.950  -6.715  -6.194  1.00  0.00    -0.351 OA
ATOM     22  C16 UNK     1       7.380  -8.056  -5.953  1.00  0.00     0.210 C 
ENDBRANCH  15  21
BRANCH  16  23
ATOM     23  O2  UNK     1       8.940  -5.334  -4.898  1.00  0.00    -0.352 OA
ATOM     24  C15 UNK     1       9.669  -6.467  -4.422  1.00  0.00     0.210 C 
ENDBRANCH  16  23
TORSDOF 4
ENDMDL
MODEL 9
REMARK VINA RESULT:      -5.8      1.933      4.476
REMARK  4 active torsions:
REMARK  status: ('A' for Active; 'I' for Inactive)
REMARK    1  A    between atoms: C11_13  and  O5_23 
REMARK    2  A    between atoms: C12_14  and  O4_21 
REMARK    3  A    between atoms: C13_15  and  O3_19 
REMARK    4  A    between atoms: C14_16  and  O2_17 
ROOT
ATOM      1  C1  UNK     1      11.966  -4.446  -6.323  1.00  0.00     0.156 C 
ATOM      2  N1  UNK     1      10.829  -4.502  -7.244  1.00  0.00    -0.347 N 
ATOM      3  C2  UNK     1       9.693  -5.190  -6.870  1.00  0.00     0.049 A 
ATOM      4  C3  UNK     1       9.501  -5.561  -5.541  1.00  0.00     0.030 A 
ATOM      5  C4  UNK     1       8.365  -6.252  -5.176  1.00  0.00     0.002 A 
ATOM      6  C5  UNK     1       7.406  -6.587  -6.120  1.00  0.00     0.001 A 
ATOM      7  C6  UNK     1       7.575  -6.228  -7.440  1.00  0.00     0.018 A 
ATOM      8  C7  UNK     1       8.717  -5.527  -7.824  1.00  0.00     0.042 A 
ATOM      9  C8  UNK     1       8.923  -5.120  -9.227  1.00  0.00     0.199 C 
ATOM     10  O1  UNK     1       8.238  -5.572 -10.128  1.00  0.00    -0.286 OA
ATOM     11  C9  UNK     1       9.991  -4.144  -9.490  1.00  0.00     0.081 A 
ATOM     12  C10 UNK     1      10.917  -3.858  -8.466  1.00  0.00     0.088 A 
ATOM     13  C11 UNK     1      11.927  -2.930  -8.700  1.00  0.00     0.132 A 
ATOM     14  C12 UNK     1      12.019  -2.298  -9.933  1.00  0.00     0.140 A 
ATOM     15  C13 UNK     1      11.106  -2.584 -10.948  1.00  0.00     0.139 A 
ATOM     16  C14 UNK     1      10.091  -3.503 -10.732  1.00  0.00     0.121 A 
ENDROOT
BRANCH  13  17
ATOM     17  O5  UNK     1      12.826  -2.641  -7.719  1.00  0.00    -0.351 OA
ATOM     18  C18 UNK     1      12.598  -1.282  -7.338  1.00  0.00     0.210 C 
ENDBRANCH  13  17
BRANCH  14  19
ATOM     19  O4  UNK     1      13.008  -1.393 -10.154  1.00  0.00    -0.350 OA
ATOM     20  C17 UNK     1      14.112  -2.112 -10.706  1.00  0.00     0.210 C 
ENDBRANCH  14  19
BRANCH  15  21
ATOM     21  O3  UNK     1      11.211  -1.957 -12.151  1.00  0.00    -0.351 OA
ATOM     22  C16 UNK     1      10.774  -0.611 -11.955  1.00  0.00     0.210 C 
ENDBRANCH  15  21
BRANCH  16  23
ATOM     23  O2  UNK     1       9.203  -3.783 -11.721  1.00  0.00    -0.352 OA
ATOM     24  C15 UNK     1       8.256  -2.713 -11.741  1.00  0.00     0.210 C 
ENDBRANCH  16  23
TORSDOF 4
ENDMDL
